---- qbsp / ericw-tools 2.0.0-alpha10 ----

--- Options Summary ---
    "bsp2" was set to "1" (from command line)
    "notex" was set to "1" (from command line)
    "wrbrushes" was set to "1" (from command line)

Input file: /Users/dhiester/Projects/Personal/postretro/assets/maps/test.map
Output file: /Users/dhiester/Projects/Personal/postretro/assets/maps/test.bsp

INFO: using built-in palette.
WARNING: No wad or _wad key exists in the worldmodel
     3 entities
     2 unique textures
     4 texinfos
    80 unique planes

INFO: world extents calculated to 2664 units
     42 brushes
    252 sides

            0 texture frames added
WARNING: unable to find texture skip
WARNING: unable to find texture __TB_empty
Processing hull 0...
    42 SOLID brushes
    42 brushes total
    252 visible sides
INFO: calculating BSP for 42 brushes with 252 sides
     42 brushes
    252 visible faces
    178 nodes
    175 expensive split nodes
      3 mid-split nodes
    179 leaves
     77 SOLID leafs
    102 EMPTY leafs
    179 leafs total
    11 max tree height
     8 avg tree height
    810 tree portals
    82 outside leaves
    0 detail filled leafs
     42 brushes
     59 visible faces
    193 non-visible faces
    213 nodes
    172 non-visible nodes
    213 expensive split nodes
    214 leaves
    103 SOLID leafs
    111 EMPTY leafs
    214 leafs total
    14 max tree height
     9 avg tree height
    948 tree portals
    103 outside leaves
    0 detail filled leafs
    948 tree portals
    184 sides visible
    92 makefaces
    47 merged
    15 subdivided
    186 nodes pruned
     8 player-occupiable leaves
     8 clusters of leaves
    11 vis portals
     8 EMPTY leafs
    20 SOLID leafs
    28 leafs total
    10 max tree height
     7 avg tree height
     46 edges added by tjunctions
     60 faces optimized through MWT
    166 triangles computed from MWT
      7 faces created via optimization of MWT triangles
    150 edges
     67 faces
Processing hull 1...
Processing hull 2...
Writing assets/maps/test.bsp as Quake BSP2 bsp2
Wrote assets/maps/test.bsp

count   lump name    byte size 
      1 models               64
     59 planes             1180
     85 vertexes           1020
     27 nodes              1188
      3 texinfos            120
     67 faces              1876
     72 clipnodes           864
      9 leafs               396
     81 marksurfaces        324
    151 edges              1208
    300 surfedges          1200
      2 textures             12
        lightdata             0
        visdata               0
        entdata             170

BSPX lump name   byte size 
BRUSHLIST              1192

0.054s seconds elapsed


